<NUMBER OF ZONES> 2
<TOTAL OD FLOW> 1
<END OF METADATA>


Origin  1  
1 :      0.25;    2 :      0.25;


Origin  2  
2 :      0.25;    1 :      0.25;

